OPT_V10/Two_days_first_run/powerflow_results_t6.txt
Pandapower Network Debug Info
==================================================

BUS:
       vm_pu  va_degree      p_mw    q_mvar
0   0.992887   0.159375  0.000963  0.001038
1   0.988549   0.246075  0.001474  0.001830
2   0.984575   0.343464  0.001803  0.003234
3   0.988935   0.279832  0.002139  0.004760
4   0.990016   0.155148  0.003184  0.004217
5   0.992261   0.161742  0.003115  0.005880
6   0.990578   0.167962  0.001131  0.001005
7   0.997412   0.017755  0.001977  0.001957
8   0.997972   0.032766  0.001795  0.002819
9   0.999818   0.000388  0.011362  0.009256
10  0.999825   0.000380  0.012951  0.008004
11  0.999843   0.000427  0.012744  0.011897
12  0.999780   0.001567  0.010283  0.005561
13  0.999753   0.001849  0.010233  0.010975
14  0.999763   0.001765  0.012819  0.011761
15  0.999926   0.000407  0.000000  0.000000
16  0.999926   0.000413  0.000000  0.000000
17  0.999785   0.001616  0.000000  0.000000
18  0.999785   0.001625  0.000000  0.000000
19  1.000000   0.000000 -0.043592 -0.045125
20  1.000000   0.000006  0.000000  0.000000
21  1.000000   0.000000 -0.044675 -0.049265
22  1.000000   0.000007  0.000000  0.000000
--------------------------------------------------

LINE:
    p_from_mw  q_from_mvar   p_to_mw  q_to_mvar         pl_mw       ql_mvar  i_from_ka   i_to_ka      i_ka  vm_from_pu  va_from_degree  vm_to_pu  va_to_degree  loading_percent
0    0.043582     0.041126 -0.043578  -0.041123  3.512172e-06  2.738498e-06   0.002306  0.002306  0.002306    1.000000        0.000006  0.999926      0.000407         1.002788
1    0.044665     0.045265 -0.044654  -0.045257  1.087767e-05  8.481501e-06   0.002448  0.002448  0.002448    1.000000        0.000007  0.999785      0.001616         1.064199
2    0.037061     0.029160 -0.037057  -0.029157  3.076563e-06  2.398847e-06   0.001815  0.001815  0.001815    0.999926        0.000407  0.999843      0.000427         0.789217
3    0.010283     0.005561 -0.010283  -0.005561  4.728598e-08  3.686966e-08   0.000450  0.000450  0.000450    0.999785        0.001616  0.999780      0.001567         0.195686
4    0.023053     0.022736 -0.023052  -0.022736  5.734876e-07  4.471577e-07   0.001247  0.001247  0.001247    0.999785        0.001616  0.999763      0.001765         0.541964
5    0.006508     0.010963 -0.006432  -0.010904  7.603843e-05  5.928842e-05   0.018404  0.018404  0.018404    0.999926        0.000413  0.992887      0.159375         8.001564
6    0.004300     0.006926 -0.004249  -0.006886  5.158719e-05  4.022338e-05   0.011770  0.011770  0.011770    0.999785        0.001625  0.992261      0.161742         5.117322
7    0.001982     0.001961 -0.001977  -0.001957  5.255131e-06  4.097512e-06   0.004026  0.004026  0.004026    0.999785        0.001625  0.997412      0.017755         1.750234
8    0.005026     0.007073 -0.005013  -0.007063  1.294894e-05  1.009650e-05   0.012526  0.012526  0.012526    0.999785        0.001625  0.997972      0.032766         5.446071
9    0.011362     0.009256 -0.011362  -0.009256  7.429805e-08  5.793141e-08   0.000564  0.000564  0.000564    0.999825        0.000380  0.999818      0.000388         0.245291
10   0.024313     0.017261 -0.024313  -0.017260  4.349390e-07  3.391291e-07   0.001148  0.001148  0.001148    0.999843        0.000427  0.999825      0.000380         0.499057
11   0.010233     0.010975 -0.010233  -0.010975  1.101722e-07  8.590308e-08   0.000578  0.000578  0.000578    0.999763        0.001765  0.999753      0.001849         0.251173
12  -0.003289    -0.005075  0.003311   0.005092  2.214054e-05  1.726334e-05   0.008830  0.008830  0.008830    0.988549        0.246075  0.992887      0.159375         3.839038
13  -0.002139    -0.004760  0.002158   0.004774  1.859252e-05  1.449689e-05   0.007617  0.007617  0.007617    0.988935        0.279832  0.992887      0.159375         3.311578
14  -0.001803    -0.003234  0.001815   0.003244  1.279425e-05  9.975891e-06   0.005428  0.005428  0.005428    0.984575        0.343464  0.988549      0.246075         2.360110
15   0.003218     0.004244 -0.003184  -0.004217  3.465458e-05  2.702075e-05   0.007703  0.007703  0.007703    0.997972        0.032766  0.990016      0.155148         3.349118
16  -0.001131    -0.001005  0.001133   0.001006  2.030621e-06  1.583309e-06   0.002204  0.002204  0.002204    0.990578        0.167962  0.992261      0.161742         0.958410
--------------------------------------------------

TRAFO:
    p_hv_mw  q_hv_mvar   p_lv_mw  q_lv_mvar    pl_mw  ql_mvar   i_hv_ka   i_lv_ka  vm_hv_pu  va_hv_degree  vm_lv_pu  va_lv_degree  loading_percent
0  0.006518   0.011963 -0.006508  -0.010963  0.00001    0.001  0.000524  0.018404  0.999926      0.000407  0.999926      0.000413         0.136245
1  0.011318   0.016960 -0.011308  -0.015960  0.00001    0.001  0.000785  0.028239  0.999785      0.001616  0.999785      0.001625         0.203937
2  0.043592   0.045125 -0.043582  -0.041126  0.00001    0.004  0.000517  0.002306  1.000000      0.000000  1.000000      0.000006         0.156855
3  0.044675   0.049265 -0.044665  -0.045265  0.00001    0.004  0.000549  0.002448  1.000000      0.000000  1.000000      0.000007         0.166263
--------------------------------------------------
